  61

     C     44.74765411  39.89486745  35.84490144
     C     45.03603031  39.19997491  34.67888122
     H     45.96962929  38.68119035  34.56632053
     C     44.12748940  39.15687403  33.64004411
     H     44.35552800  38.62835253  32.73342529
     C     42.91053157  39.81931863  33.74587558
     O     42.08269322  39.78813154  32.70610053
     H     41.15794041  40.00699921  32.92621233
     C     42.60787927  40.50399871  34.91837775
     H     41.65874396  41.00031207  34.99465803
     C     43.52807654  40.54771149  35.94671175
     H     43.28656188  41.10329821  36.83558546
     C     41.56298699  35.97477517  34.53461546
     H     41.30522352  35.60030827  35.51951608
     H     42.58739374  36.32979860  34.59650603
     C     40.64598177  37.13891033  34.16068505
     H     40.85395773  37.97164828  34.82734726
     H     40.84816150  37.52672581  33.16713812
     C     39.16317489  36.86308069  34.25620161
     O     38.70918668  35.79979505  34.54826176
     O     38.38562127  37.87829396  33.99606806
     H     38.85130782  38.70587303  33.74848815
     N     32.62940311  46.74259515  29.34700110
     H     33.45821831  46.20158274  29.32492417
     C     31.41271594  46.06417992  29.61571198
     C     31.41233974  44.61773649  29.09672008
     S     32.40200460  43.44247818  30.11756948
     C     33.71403846  42.84609705  28.99604872
     C     35.04412381  43.20389165  29.44623883
     C     36.30142836  42.47231699  29.32059636
     C     36.92548284  41.81221078  30.39657892
     C     36.42679126  41.37839541  31.65412472
     C     37.29514886  40.82807401  32.57440917
     C     38.70048536  40.69807101  32.34606009
     O     39.47700633  40.16012379  33.22985820
     C     39.17507662  41.10661726  31.06789919
     C     38.31256610  41.64004860  30.14050745
     C     38.62112527  42.09056087  28.73648831
     C     37.34210843  42.82051960  28.27127438
     H     37.49511014  43.89811037  28.21330141
     H     37.03851190  42.49894502  27.28011479
     H     38.80164937  41.22116402  28.11136955
     H     39.50141594  42.72206058  28.67714647
     H     40.22029404  40.98043092  30.84357513
     H     36.91960731  40.49190259  33.52443931
     H     35.37891597  41.44727496  31.88247949
     H     35.06403970  44.16614829  29.92285611
     O     33.44186587  42.20006444  28.01501343
     H     30.40186604  44.24170474  29.12599923
     H     31.77032708  44.59589098  28.07659172
     H     30.58333180  46.55088928  29.11255622
     C     31.00088850  46.11857754  31.08447030
     O     29.86744956  46.04116785  31.42639258
     C     32.76701245  48.07415264  29.55865465
     N     32.02935682  46.30343064  31.99722829
     C     45.79131577  40.08708565  36.90412644
     C     41.50967085  34.81635522  33.56119330
     H     32.72895029  47.70584951  29.50011218
     H     31.78512207  46.25953279  31.78047176
     H     45.51351151  40.03592057  36.62217949
     H     41.52386266  35.12470611  33.82030105
